cases/case39_tree.m
function mpc = case39_tree

%% MATPOWER Case Format : Version 2
mpc.version = '2';

%%-----  Power Flow Data  -----%%
%% system MVA base
mpc.baseMVA = 1;

%% bus data
%	bus_i	type	Pd	Qd	Gs	Bs	area	Vm	Va	baseKV	zone	Vmax	Vmin
mpc.bus = [
	1	1	97.6	44.2	0	0	2	1.0393836	-13.536602	345	1	1.06	0.94;
	2	1	0	0	0	0	2	1.0484941	-9.7852666	345	1	1.06	0.94;
	3	1	322	2.4	0	0	2	1.0307077	-12.276384	345	1	1.06	0.94;
	4	1	500	184	0	0	1	1.00446	-12.626734	345	1	1.06	0.94;
	5	1	0	0	0	0	1	1.0060063	-11.192339	345	1	1.06	0.94;
	6	1	0	0	0	0	1	1.0082256	-10.40833	345	1	1.06	0.94;
	7	1	233.8	84	0	0	1	0.99839728	-12.755626	345	1	1.06	0.94;
	8	1	522	176.6	0	0	1	0.99787232	-13.335844	345	1	1.06	0.94;
	9	1	6.5	-66.6	0	0	1	1.038332	-14.178442	345	1	1.06	0.94;
	10	1	0	0	0	0	1	1.0178431	-8.170875	345	1	1.06	0.94;
	11	1	0	0	0	0	1	1.0133858	-8.9369663	345	1	1.06	0.94;
	12	1	8.53	88	0	0	1	1.000815	-8.9988236	345	1	1.06	0.94;
	13	1	0	0	0	0	1	1.014923	-8.9299272	345	1	1.06	0.94;
	14	3	0	0	0	0	1	1.012319	-10.715295	345	1	1.06	0.94;
	15	1	320	153	0	0	3	1.0161854	-11.345399	345	1	1.06	0.94;
	16	1	329	32.3	0	0	3	1.0325203	-10.033348	345	1	1.06	0.94;
	17	1	0	0	0	0	2	1.0342365	-11.116436	345	1	1.06	0.94;
	18	1	158	30	0	0	2	1.0315726	-11.986168	345	1	1.06	0.94;
	19	1	0	0	0	0	3	1.0501068	-5.4100729	345	1	1.06	0.94;
	20	1	680	103	0	0	3	0.99101054	-6.8211783	345	1	1.06	0.94;
	21	1	274	115	0	0	3	1.0323192	-7.6287461	345	1	1.06	0.94;
	22	1	0	0	0	0	3	1.0501427	-3.1831199	345	1	1.06	0.94;
	23	1	247.5	84.6	0	0	3	1.0451451	-3.3812763	345	1	1.06	0.94;
	24	1	308.6	-92.2	0	0	3	1.038001	-9.9137585	345	1	1.06	0.94;
	25	1	224	47.2	0	0	2	1.0576827	-8.3692354	345	1	1.06	0.94;
	26	1	139	17	0	0	2	1.0525613	-9.4387696	345	1	1.06	0.94;
	27	1	281	75.5	0	0	2	1.0383449	-11.362152	345	1	1.06	0.94;
	28	1	206	27.6	0	0	3	1.0503737	-5.9283592	345	1	1.06	0.94;
	29	1	283.5	26.9	0	0	3	1.0501149	-3.1698741	345	1	1.06	0.94;
	30	2	0	0	0	0	2	1.0499	-7.3704746	345	1	1.06	0.94;
	31	2	9.2	4.6	0	0	1	0.982	0	345	1	1.06	0.94;
	32	2	0	0	0	0	1	0.9841	-0.1884374	345	1	1.06	0.94;
	33	2	0	0	0	0	3	0.9972	-0.19317445	345	1	1.06	0.94;
	34	2	0	0	0	0	3	1.0123	-1.631119	345	1	1.06	0.94;
	35	2	0	0	0	0	3	1.0494	1.7765069	345	1	1.06	0.94;
	36	2	0	0	0	0	3	1.0636	4.4684374	345	1	1.06	0.94;
	37	2	0	0	0	0	2	1.0275	-1.5828988	345	1	1.06	0.94;
	38	2	0	0	0	0	3	1.0265	3.8928177	345	1	1.06	0.94;
	39	2	1104	250	0	0	1	1.03	-14.535256	345	1	1.06	0.94;
];

%% generator data
%	bus	Pg	Qg	Qmax	Qmin	Vg	mBase	status	Pmax	Pmin	Pc1	Pc2	Qc1min	Qc1max	Qc2min	Qc2max	ramp_agc	ramp_10	ramp_30	ramp_q	apf
mpc.gen = [
	14	6500	2500	10000	-10000	0.982	100	1	10000	0	0	0	0	0	0	0	0	0	0	0	0;
];

%% branch data
%	fbus	tbus	r	x	b	rateA	rateB	rateC	ratio	angle	status	angmin	angmax
mpc.branch = [
	1	2	3.5e-05	0.000411	0	600	600	600	0	0	1	-360	360;
	1	39	1e-05	0.00025	0	1000	1000	1000	0	0	1	-360	360;
	2	3	1.3e-05	0.000151	0	500	500	500	0	0	1	-360	360;
	2	25	7e-05	8.6e-05	0	500	500	500	0	0	1	-360	360;
	2	30	0	0.000181	0	900	900	2500	1.025	0	1	-360	360;
	3	4	1.3e-05	0.000213	0	500	500	500	0	0	1	-360	360;
	4	14	8e-06	0.000129	0	500	500	500	0	0	1	-360	360;
	5	6	2e-06	2.6e-05	0	1200	1200	1200	0	0	1	-360	360;
	5	8	8e-06	0.000112	0	900	900	900	0	0	1	-360	360;
	6	7	6e-06	9.2e-05	0	900	900	900	0	0	1	-360	360;
	6	11	7e-06	8.2e-05	0	480	480	480	0	0	1	-360	360;
	6	31	0	0.00025	0	1800	1800	1800	1.07	0	1	-360	360;
	8	9	2.3e-05	0.000363	0	900	900	900	0	0	1	-360	360;
	10	11	4e-06	4.3e-05	0	600	600	600	0	0	1	-360	360;
	10	13	4e-06	4.3e-05	0	600	600	600	0	0	1	-360	360;
	10	32	0	0.0002	0	900	900	2500	1.07	0	1	-360	360;
	12	13	1.6e-05	0.000435	0	500	500	500	1.006	0	1	-360	360;
	13	14	9e-06	0.000101	0	600	600	600	0	0	1	-360	360;
	14	15	1.8e-05	0.000217	0	600	600	600	0	0	1	-360	360;
	15	16	9e-06	9.4e-05	0	600	600	600	0	0	1	-360	360;
	16	17	7e-06	8.9e-05	0	600	600	600	0	0	1	-360	360;
	16	19	1.6e-05	0.000195	0	600	600	2500	0	0	1	-360	360;
	16	21	8e-06	0.000135	0	600	600	600	0	0	1	-360	360;
	16	24	3e-06	5.9e-05	0	600	600	600	0	0	1	-360	360;
	17	18	7e-06	8.2e-05	0	600	600	600	0	0	1	-360	360;
	19	20	7e-06	0.000138	0	900	900	2500	1.06	0	1	-360	360;
	19	33	7e-06	0.000142	0	900	900	2500	1.07	0	1	-360	360;
	20	34	9e-06	0.00018	0	900	900	2500	1.009	0	1	-360	360;
	21	22	8e-06	0.00014	0	900	900	900	0	0	1	-360	360;
	22	35	0	0.000143	0	900	900	2500	1.025	0	1	-360	360;
	23	24	2.2e-05	0.00035	0	600	600	600	0	0	1	-360	360;
	23	36	5e-06	0.000272	0	900	900	2500	1	0	1	-360	360;
	25	26	3.2e-05	0.000323	0	600	600	600	0	0	1	-360	360;
	25	37	6e-06	0.000232	0	900	900	2500	1.025	0	1	-360	360;
	26	27	1.4e-05	0.000147	0	600	600	600	0	0	1	-360	360;
	26	29	5.7e-05	0.000625	0	600	600	600	0	0	1	-360	360;
	28	29	1.4e-05	0.000151	0	600	600	600	0	0	1	-360	360;
	29	38	8e-06	0.000156	0	1200	1200	2500	1.025	0	1	-360	360;
];

%%-----  OPF Data  -----%%
%% generator cost data
%	1	startup	shutdown	n	x1	y1	...	xn	yn
%	2	startup	shutdown	n	c(n-1)	...	c0
mpc.gencost = [
	2	0	0	3	0.01	0.3	0.2;
	2	0	0	3	0.01	0.3	0.2;
	2	0	0	3	0.01	0.3	0.2;
	2	0	0	3	0.01	0.3	0.2;
	2	0	0	3	0.01	0.3	0.2;
	2	0	0	3	0.01	0.3	0.2;
	2	0	0	3	0.01	0.3	0.2;
	2	0	0	3	0.01	0.3	0.2;
	2	0	0	3	0.01	0.3	0.2;
	2	0	0	3	0.01	0.3	0.2;
];
